
/*--------------------------------*- C++ -*----------------------------------*\
| =========                 |                                                 |
| \\      /  F ield         | OpenFOAM: The Open Source CFD Toolbox           |
|  \\    /   O peration     | Version:  2.2.1                                 |
|   \\  /    A nd           | Web:      www.OpenFOAM.org                      |
|    \\/     M anipulation  |                                                 |
\*---------------------------------------------------------------------------*/
FoamFile
{
    version     2.0;
    format      ascii;
    class       dictionary;
    location    "constant";
    object      weights;
}
// * * * * * * * * * * * * * * * * * * * * * * * * * * * * * * * * * * * * * //
61
(
 1.400000000000000e+01
 6.400000000000000e+01
 2.400000000000000e+01
 6.400000000000000e+01
 2.800000000000000e+01
 6.400000000000000e+01
 2.400000000000000e+01
 6.400000000000000e+01
 2.800000000000000e+01
 6.400000000000000e+01
 2.400000000000000e+01
 6.400000000000000e+01
 2.800000000000000e+01
 6.400000000000000e+01
 2.400000000000000e+01
 6.400000000000000e+01
 2.800000000000000e+01
 6.400000000000000e+01
 2.400000000000000e+01
 6.400000000000000e+01
 2.800000000000000e+01
 6.400000000000000e+01
 2.400000000000000e+01
 6.400000000000000e+01
 2.800000000000000e+01
 6.400000000000000e+01
 2.400000000000000e+01
 6.400000000000000e+01
 2.800000000000000e+01
 6.400000000000000e+01
 2.400000000000000e+01
 6.400000000000000e+01
 2.800000000000000e+01
 6.400000000000000e+01
 2.400000000000000e+01
 6.400000000000000e+01
 2.800000000000000e+01
 6.400000000000000e+01
 2.400000000000000e+01
 6.400000000000000e+01
 2.800000000000000e+01
 6.400000000000000e+01
 2.400000000000000e+01
 6.400000000000000e+01
 2.800000000000000e+01
 6.400000000000000e+01
 2.400000000000000e+01
 6.400000000000000e+01
 2.800000000000000e+01
 6.400000000000000e+01
 2.400000000000000e+01
 6.400000000000000e+01
 2.800000000000000e+01
 6.400000000000000e+01
 2.400000000000000e+01
 6.400000000000000e+01
 2.800000000000000e+01
 6.400000000000000e+01
 2.400000000000000e+01
 6.400000000000000e+01
 1.400000000000000e+01
);