
/*--------------------------------*- C++ -*----------------------------------*\
| =========                 |                                                 |
| \\      /  F ield         | OpenFOAM: The Open Source CFD Toolbox           |
|  \\    /   O peration     | Version:  2.2.1                                 |
|   \\  /    A nd           | Web:      www.OpenFOAM.org                      |
|    \\/     M anipulation  |                                                 |
\*---------------------------------------------------------------------------*/
FoamFile
{
    version     2.0;
    format      ascii;
    class       dictionary;
    location    "constant";
    object      weights;
}
// * * * * * * * * * * * * * * * * * * * * * * * * * * * * * * * * * * * * * //
41
(
 2.177777777777778e-01
 9.955555555555555e-01
 3.733333333333333e-01
 9.955555555555555e-01
 4.355555555555555e-01
 9.955555555555555e-01
 3.733333333333333e-01
 9.955555555555555e-01
 4.355555555555555e-01
 9.955555555555555e-01
 3.733333333333333e-01
 9.955555555555555e-01
 4.355555555555555e-01
 9.955555555555555e-01
 3.733333333333333e-01
 9.955555555555555e-01
 4.355555555555555e-01
 9.955555555555555e-01
 3.733333333333333e-01
 9.955555555555555e-01
 4.355555555555555e-01
 9.955555555555555e-01
 3.733333333333333e-01
 9.955555555555555e-01
 4.355555555555555e-01
 9.955555555555555e-01
 3.733333333333333e-01
 9.955555555555555e-01
 4.355555555555555e-01
 9.955555555555555e-01
 3.733333333333333e-01
 9.955555555555555e-01
 4.355555555555555e-01
 9.955555555555555e-01
 3.733333333333333e-01
 9.955555555555555e-01
 4.355555555555555e-01
 9.955555555555555e-01
 3.733333333333333e-01
 9.955555555555555e-01
 2.177777777777778e-01
);