/*--------------------------------*- C++ -*----------------------------------*\
| =========                 |                                                 |
| \\      /  F ield         | OpenFOAM: The Open Source CFD Toolbox           |
|  \\    /   O peration     | Version:  2.3.0                                 |
|   \\  /    A nd           | Web:      www.OpenFOAM.org                      |
|    \\/     M anipulation  |                                                 |
\*---------------------------------------------------------------------------*/
FoamFile
{
    version     2.0;
    format      ascii;
    class       volScalarField;
    location    "0";
    object      rho;
}
// * * * * * * * * * * * * * * * * * * * * * * * * * * * * * * * * * * * * * //

dimensions      [1 -3 0 0 0 0 0];

internalField   uniform 1;

boundaryField
{
    DIRICHLETINLET
    {
        type            fixedValue;
        value           uniform 1;
    }
    OUTFLOW
    {
              type            zeroGradient;
    }
    PERIODIC
    {
        type            empty;
    }
    WALL
    {
        type            calculatedMaxwell;;
        value           uniform 1;
    }
}


// ************************************************************************* //
