/*--------------------------------*- C++ -*----------------------------------*\
| =========                 |                                                 |
| \\      /  F ield         | OpenFOAM: The Open Source CFD Toolbox           |
|  \\    /   O peration     | Version:  2.3.0                                 |
|   \\  /    A nd           | Web:      www.OpenFOAM.org                      |
|    \\/     M anipulation  |                                                 |
\*---------------------------------------------------------------------------*/
FoamFile
{
    version     2.0;
    format      ascii;
    class       volVectorField;
    location    "0";
    object      U;
}
// * * * * * * * * * * * * * * * * * * * * * * * * * * * * * * * * * * * * * //

dimensions      [0 1 -1 0 0 0 0];

internalField   uniform (0 0 0);

boundaryField
{
    DIRICHLETINLET
    {
        type            fixedValue;
        value           uniform (4.56 0 0);
    }
    OUTFLOW
    {
              type            zeroGradient;
    }
    PERIODIC
    {
        type            empty;
    }
    WALL
    {
        type            fixedValue;
        value           uniform (0 0 0);
    }

}

// ************************************************************************* //

