
/*--------------------------------*- C++ -*----------------------------------*\
| =========                 |                                                 |
| \\      /  F ield         | OpenFOAM: The Open Source CFD Toolbox           |
|  \\    /   O peration     | Version:  2.2.1                                 |
|   \\  /    A nd           | Web:      www.OpenFOAM.org                      |
|    \\/     M anipulation  |                                                 |
\*---------------------------------------------------------------------------*/
FoamFile
{
    version     2.0;
    format      ascii;
    class       dictionary;
    location    "constant";
    object      weights;
}
// * * * * * * * * * * * * * * * * * * * * * * * * * * * * * * * * * * * * * //
201
(
 3.111111111111111e-02
 1.422222222222222e-01
 5.333333333333334e-02
 1.422222222222222e-01
 6.222222222222223e-02
 1.422222222222222e-01
 5.333333333333334e-02
 1.422222222222222e-01
 6.222222222222223e-02
 1.422222222222222e-01
 5.333333333333334e-02
 1.422222222222222e-01
 6.222222222222223e-02
 1.422222222222222e-01
 5.333333333333334e-02
 1.422222222222222e-01
 6.222222222222223e-02
 1.422222222222222e-01
 5.333333333333334e-02
 1.422222222222222e-01
 6.222222222222223e-02
 1.422222222222222e-01
 5.333333333333334e-02
 1.422222222222222e-01
 6.222222222222223e-02
 1.422222222222222e-01
 5.333333333333334e-02
 1.422222222222222e-01
 6.222222222222223e-02
 1.422222222222222e-01
 5.333333333333334e-02
 1.422222222222222e-01
 6.222222222222223e-02
 1.422222222222222e-01
 5.333333333333334e-02
 1.422222222222222e-01
 6.222222222222223e-02
 1.422222222222222e-01
 5.333333333333334e-02
 1.422222222222222e-01
 6.222222222222223e-02
 1.422222222222222e-01
 5.333333333333334e-02
 1.422222222222222e-01
 6.222222222222223e-02
 1.422222222222222e-01
 5.333333333333334e-02
 1.422222222222222e-01
 6.222222222222223e-02
 1.422222222222222e-01
 5.333333333333334e-02
 1.422222222222222e-01
 6.222222222222223e-02
 1.422222222222222e-01
 5.333333333333334e-02
 1.422222222222222e-01
 6.222222222222223e-02
 1.422222222222222e-01
 5.333333333333334e-02
 1.422222222222222e-01
 6.222222222222223e-02
 1.422222222222222e-01
 5.333333333333334e-02
 1.422222222222222e-01
 6.222222222222223e-02
 1.422222222222222e-01
 5.333333333333334e-02
 1.422222222222222e-01
 6.222222222222223e-02
 1.422222222222222e-01
 5.333333333333334e-02
 1.422222222222222e-01
 6.222222222222223e-02
 1.422222222222222e-01
 5.333333333333334e-02
 1.422222222222222e-01
 6.222222222222223e-02
 1.422222222222222e-01
 5.333333333333334e-02
 1.422222222222222e-01
 6.222222222222223e-02
 1.422222222222222e-01
 5.333333333333334e-02
 1.422222222222222e-01
 6.222222222222223e-02
 1.422222222222222e-01
 5.333333333333334e-02
 1.422222222222222e-01
 6.222222222222223e-02
 1.422222222222222e-01
 5.333333333333334e-02
 1.422222222222222e-01
 6.222222222222223e-02
 1.422222222222222e-01
 5.333333333333334e-02
 1.422222222222222e-01
 6.222222222222223e-02
 1.422222222222222e-01
 5.333333333333334e-02
 1.422222222222222e-01
 6.222222222222223e-02
 1.422222222222222e-01
 5.333333333333334e-02
 1.422222222222222e-01
 6.222222222222223e-02
 1.422222222222222e-01
 5.333333333333334e-02
 1.422222222222222e-01
 6.222222222222223e-02
 1.422222222222222e-01
 5.333333333333334e-02
 1.422222222222222e-01
 6.222222222222223e-02
 1.422222222222222e-01
 5.333333333333334e-02
 1.422222222222222e-01
 6.222222222222223e-02
 1.422222222222222e-01
 5.333333333333334e-02
 1.422222222222222e-01
 6.222222222222223e-02
 1.422222222222222e-01
 5.333333333333334e-02
 1.422222222222222e-01
 6.222222222222223e-02
 1.422222222222222e-01
 5.333333333333334e-02
 1.422222222222222e-01
 6.222222222222223e-02
 1.422222222222222e-01
 5.333333333333334e-02
 1.422222222222222e-01
 6.222222222222223e-02
 1.422222222222222e-01
 5.333333333333334e-02
 1.422222222222222e-01
 6.222222222222223e-02
 1.422222222222222e-01
 5.333333333333334e-02
 1.422222222222222e-01
 6.222222222222223e-02
 1.422222222222222e-01
 5.333333333333334e-02
 1.422222222222222e-01
 6.222222222222223e-02
 1.422222222222222e-01
 5.333333333333334e-02
 1.422222222222222e-01
 6.222222222222223e-02
 1.422222222222222e-01
 5.333333333333334e-02
 1.422222222222222e-01
 6.222222222222223e-02
 1.422222222222222e-01
 5.333333333333334e-02
 1.422222222222222e-01
 6.222222222222223e-02
 1.422222222222222e-01
 5.333333333333334e-02
 1.422222222222222e-01
 6.222222222222223e-02
 1.422222222222222e-01
 5.333333333333334e-02
 1.422222222222222e-01
 6.222222222222223e-02
 1.422222222222222e-01
 5.333333333333334e-02
 1.422222222222222e-01
 6.222222222222223e-02
 1.422222222222222e-01
 5.333333333333334e-02
 1.422222222222222e-01
 6.222222222222223e-02
 1.422222222222222e-01
 5.333333333333334e-02
 1.422222222222222e-01
 6.222222222222223e-02
 1.422222222222222e-01
 5.333333333333334e-02
 1.422222222222222e-01
 6.222222222222223e-02
 1.422222222222222e-01
 5.333333333333334e-02
 1.422222222222222e-01
 6.222222222222223e-02
 1.422222222222222e-01
 5.333333333333334e-02
 1.422222222222222e-01
 6.222222222222223e-02
 1.422222222222222e-01
 5.333333333333334e-02
 1.422222222222222e-01
 6.222222222222223e-02
 1.422222222222222e-01
 5.333333333333334e-02
 1.422222222222222e-01
 6.222222222222223e-02
 1.422222222222222e-01
 5.333333333333334e-02
 1.422222222222222e-01
 3.111111111111111e-02
);