FoamFile
{
    version     2.0;
    format      ascii;
    class       polyBoundaryMesh;
    location    "constant/polyMesh";
    object      boundary;
}

3         
(
    InLet
    {
        type Unspecified;
        nFaces 369;
        startFace 537089;
    }
    OutLet
    {
        type Unspecified;
        nFaces 369;
        startFace 537458;
    }
    Wall
    {
        type Unspecified;
        nFaces 10990;
        startFace 537827;
    }
)
