FoamFile
{
    version     2.0;
    format      ascii;
    class       polyBoundaryMesh;
    location    "constant/polyMesh";
    object      boundary;
}

2         
(
    farfield
    {
        type patch;
        nFaces 1350;
        startFace 87750;
    }
    wall
    {
        type wall;
        nFaces 1350;
        startFace 89100;
    }
)
