
/*--------------------------------*- C++ -*----------------------------------*\
| =========                 |                                                 |
| \\      /  F ield         | OpenFOAM: The Open Source CFD Toolbox           |
|  \\    /   O peration     | Version:  2.2.1                                 |
|   \\  /    A nd           | Web:      www.OpenFOAM.org                      |
|    \\/     M anipulation  |                                                 |
\*---------------------------------------------------------------------------*/
FoamFile
{
    version     2.0;
    format      ascii;
    class       dictionary;
    location    "constant";
    object      weights;
}
// * * * * * * * * * * * * * * * * * * * * * * * * * * * * * * * * * * * * * //
89
(
 7.070707070707070e-02
 3.232323232323233e-01
 1.212121212121212e-01
 3.232323232323233e-01
 1.414141414141414e-01
 3.232323232323233e-01
 1.212121212121212e-01
 3.232323232323233e-01
 1.414141414141414e-01
 3.232323232323233e-01
 1.212121212121212e-01
 3.232323232323233e-01
 1.414141414141414e-01
 3.232323232323233e-01
 1.212121212121212e-01
 3.232323232323233e-01
 1.414141414141414e-01
 3.232323232323233e-01
 1.212121212121212e-01
 3.232323232323233e-01
 1.414141414141414e-01
 3.232323232323233e-01
 1.212121212121212e-01
 3.232323232323233e-01
 1.414141414141414e-01
 3.232323232323233e-01
 1.212121212121212e-01
 3.232323232323233e-01
 1.414141414141414e-01
 3.232323232323233e-01
 1.212121212121212e-01
 3.232323232323233e-01
 1.414141414141414e-01
 3.232323232323233e-01
 1.212121212121212e-01
 3.232323232323233e-01
 1.414141414141414e-01
 3.232323232323233e-01
 1.212121212121212e-01
 3.232323232323233e-01
 1.414141414141414e-01
 3.232323232323233e-01
 1.212121212121212e-01
 3.232323232323233e-01
 1.414141414141414e-01
 3.232323232323233e-01
 1.212121212121212e-01
 3.232323232323233e-01
 1.414141414141414e-01
 3.232323232323233e-01
 1.212121212121212e-01
 3.232323232323233e-01
 1.414141414141414e-01
 3.232323232323233e-01
 1.212121212121212e-01
 3.232323232323233e-01
 1.414141414141414e-01
 3.232323232323233e-01
 1.212121212121212e-01
 3.232323232323233e-01
 1.414141414141414e-01
 3.232323232323233e-01
 1.212121212121212e-01
 3.232323232323233e-01
 1.414141414141414e-01
 3.232323232323233e-01
 1.212121212121212e-01
 3.232323232323233e-01
 1.414141414141414e-01
 3.232323232323233e-01
 1.212121212121212e-01
 3.232323232323233e-01
 1.414141414141414e-01
 3.232323232323233e-01
 1.212121212121212e-01
 3.232323232323233e-01
 1.414141414141414e-01
 3.232323232323233e-01
 1.212121212121212e-01
 3.232323232323233e-01
 1.414141414141414e-01
 3.232323232323233e-01
 1.212121212121212e-01
 3.232323232323233e-01
 1.414141414141414e-01
 3.232323232323233e-01
 1.212121212121212e-01
 3.232323232323233e-01
 7.070707070707070e-02
);