
/*--------------------------------*- C++ -*----------------------------------*\
| =========                 |                                                 |
| \\      /  F ield         | OpenFOAM: The Open Source CFD Toolbox           |
|  \\    /   O peration     | Version:  2.2.1                                 |
|   \\  /    A nd           | Web:      www.OpenFOAM.org                      |
|    \\/     M anipulation  |                                                 |
\*---------------------------------------------------------------------------*/
FoamFile
{
    version     2.0;
    format      ascii;
    class       dictionary;
    location    "constant";
    object      Xis;
}
// * * * * * * * * * * * * * * * * * * * * * * * * * * * * * * * * * * * * * //
89
(
-1.000000000000000e+01
-9.772727272727273e+00
-9.545454545454545e+00
-9.318181818181818e+00
-9.090909090909092e+00
-8.863636363636363e+00
-8.636363636363637e+00
-8.409090909090910e+00
-8.181818181818182e+00
-7.954545454545455e+00
-7.727272727272728e+00
-7.500000000000000e+00
-7.272727272727273e+00
-7.045454545454545e+00
-6.818181818181818e+00
-6.590909090909091e+00
-6.363636363636363e+00
-6.136363636363637e+00
-5.909090909090909e+00
-5.681818181818182e+00
-5.454545454545455e+00
-5.227272727272728e+00
-5.000000000000000e+00
-4.772727272727272e+00
-4.545454545454546e+00
-4.318181818181818e+00
-4.090909090909091e+00
-3.863636363636364e+00
-3.636363636363637e+00
-3.409090909090909e+00
-3.181818181818182e+00
-2.954545454545455e+00
-2.727272727272728e+00
-2.500000000000000e+00
-2.272727272727273e+00
-2.045454545454546e+00
-1.818181818181818e+00
-1.590909090909092e+00
-1.363636363636363e+00
-1.136363636363637e+00
-9.090909090909101e-01
-6.818181818181817e-01
-4.545454545454550e-01
-2.272727272727284e-01
 0.000000000000000e+00
 2.272727272727266e-01
 4.545454545454550e-01
 6.818181818181817e-01
 9.090909090909083e-01
 1.136363636363637e+00
 1.363636363636363e+00
 1.590909090909090e+00
 1.818181818181818e+00
 2.045454545454545e+00
 2.272727272727272e+00
 2.500000000000000e+00
 2.727272727272727e+00
 2.954545454545453e+00
 3.181818181818182e+00
 3.409090909090908e+00
 3.636363636363637e+00
 3.863636363636363e+00
 4.090909090909090e+00
 4.318181818181818e+00
 4.545454545454545e+00
 4.772727272727272e+00
 5.000000000000000e+00
 5.227272727272727e+00
 5.454545454545453e+00
 5.681818181818182e+00
 5.909090909090908e+00
 6.136363636363637e+00
 6.363636363636363e+00
 6.590909090909090e+00
 6.818181818181817e+00
 7.045454545454543e+00
 7.272727272727273e+00
 7.500000000000000e+00
 7.727272727272727e+00
 7.954545454545453e+00
 8.181818181818180e+00
 8.409090909090910e+00
 8.636363636363637e+00
 8.863636363636363e+00
 9.090909090909090e+00
 9.318181818181817e+00
 9.545454545454543e+00
 9.772727272727273e+00
 1.000000000000000e+01
);