/*--------------------------------*- C++ -*----------------------------------*\
| =========                 |                                                 |
| \\      /  F ield         | OpenFOAM: The Open Source CFD Toolbox           |
|  \\    /   O peration     | Version:  2.4.0                                 |
|   \\  /    A nd           | Web:      www.OpenFOAM.org                      |
|    \\/     M anipulation  |                                                 |
\*---------------------------------------------------------------------------*/
FoamFile
{
    version     2.0;
    format      ascii;
    class       dictionary;
    location    "system";
    object      setFieldsDict;
}
// * * * * * * * * * * * * * * * * * * * * * * * * * * * * * * * * * * * * * //

defaultFieldValues (  volScalarFieldValue rho 1 volVectorFieldValue U ( 0 0 0 ) volScalarFieldValue T 2 );

regions         ( boxToCell { box ( 0 -1 -1 ) ( 5 1 1 ) ; fieldValues ( volScalarFieldValue rho 0.125 volScalarFieldValue T 1.6 ) ; } );


// ************************************************************************* //
