/*--------------------------------*- C++ -*----------------------------------*\
| =========                 |                                                 |
| \\      /  F ield         | OpenFOAM: The Open Source CFD Toolbox           |
|  \\    /   O peration     | Version:  2.2.1                                 |
|   \\  /    A nd           | Web:      www.OpenFOAM.org                      |
|    \\/     M anipulation  |                                                 |
\*---------------------------------------------------------------------------*/
FoamFile
{
    version     2.0;
    format      ascii;
    class       dictionary;
    object      blockMeshDict;
}
// * * * * * * * * * * * * * * * * * * * * * * * * * * * * * * * * * * * * * //

convertToMeters 1e-06;

vertices
(
    (0 -0.2 -0.033)
    (2 -0.2 -0.033)
    (2 0.2 -0.033)
    (0 0.2 -0.033)
    (0 -0.2 0.033)
    (2 -0.2 0.033)
    (2 0.2 0.033)
    (0 0.2 0.033)
);

blocks
(
    hex (0 1 2 3 4 5 6 7)  (100 60 1) simpleGrading  (1 1 1)

);

edges
(
);

boundary
(
    wall
    {
        type wall;
        faces
        (
            (0 1 5 4)
            (3 2 6 7)
        );
    }
    inlet
    {
        type patch;
        faces
        (
            (0 3 7 4)
        );
    }
    outlet
    {
        type patch;
        faces
        (
            (1 2 6 5)
        );
    }
    frontAndBackPlanes
    {
        type empty;
        faces
        (
            (0 1 2 3)
            (4 5 6 7)
        );
    }
);

mergePatchPairs
(
);

// ************************************************************************* //
