
/*--------------------------------*- C++ -*----------------------------------*\
| =========                 |                                                 |
| \\      /  F ield         | OpenFOAM: The Open Source CFD Toolbox           |
|  \\    /   O peration     | Version:  2.2.1                                 |
|   \\  /    A nd           | Web:      www.OpenFOAM.org                      |
|    \\/     M anipulation  |                                                 |
\*---------------------------------------------------------------------------*/
FoamFile
{
    version     2.0;
    format      ascii;
    class       dictionary;
    location    "constant";
    object      Xis;
}
// * * * * * * * * * * * * * * * * * * * * * * * * * * * * * * * * * * * * * //
41
(
-1.400000000000000e+01
-1.330000000000000e+01
-1.260000000000000e+01
-1.190000000000000e+01
-1.120000000000000e+01
-1.050000000000000e+01
-9.800000000000001e+00
-9.100000000000001e+00
-8.400000000000000e+00
-7.700000000000000e+00
-7.000000000000000e+00
-6.300000000000001e+00
-5.600000000000001e+00
-4.900000000000000e+00
-4.200000000000001e+00
-3.500000000000000e+00
-2.800000000000001e+00
-2.100000000000001e+00
-1.400000000000000e+00
-7.000000000000011e-01
 0.000000000000000e+00
 6.999999999999993e-01
 1.399999999999999e+00
 2.099999999999998e+00
 2.799999999999997e+00
 3.500000000000000e+00
 4.199999999999999e+00
 4.899999999999999e+00
 5.599999999999998e+00
 6.299999999999997e+00
 7.000000000000000e+00
 7.699999999999999e+00
 8.399999999999999e+00
 9.099999999999998e+00
 9.799999999999997e+00
 1.050000000000000e+01
 1.120000000000000e+01
 1.190000000000000e+01
 1.260000000000000e+01
 1.330000000000000e+01
 1.400000000000000e+01
);