
/*--------------------------------*- C++ -*----------------------------------*\
| =========                 |                                                 |
| \\      /  F ield         | OpenFOAM: The Open Source CFD Toolbox           |
|  \\    /   O peration     | Version:  2.2.1                                 |
|   \\  /    A nd           | Web:      www.OpenFOAM.org                      |
|    \\/     M anipulation  |                                                 |
\*---------------------------------------------------------------------------*/
FoamFile
{
    version     2.0;
    format      ascii;
    class       dictionary;
    location    "constant";
    object      weights;
}
// * * * * * * * * * * * * * * * * * * * * * * * * * * * * * * * * * * * * * //
61
(
 8.350980684073534e+00
 3.817591169862187e+01
 1.431596688698320e+01
 3.817591169862187e+01
 1.670196136814707e+01
 3.817591169862187e+01
 1.431596688698320e+01
 3.817591169862187e+01
 1.670196136814707e+01
 3.817591169862187e+01
 1.431596688698320e+01
 3.817591169862187e+01
 1.670196136814707e+01
 3.817591169862187e+01
 1.431596688698320e+01
 3.817591169862187e+01
 1.670196136814707e+01
 3.817591169862187e+01
 1.431596688698320e+01
 3.817591169862187e+01
 1.670196136814707e+01
 3.817591169862187e+01
 1.431596688698320e+01
 3.817591169862187e+01
 1.670196136814707e+01
 3.817591169862187e+01
 1.431596688698320e+01
 3.817591169862187e+01
 1.670196136814707e+01
 3.817591169862187e+01
 1.431596688698320e+01
 3.817591169862187e+01
 1.670196136814707e+01
 3.817591169862187e+01
 1.431596688698320e+01
 3.817591169862187e+01
 1.670196136814707e+01
 3.817591169862187e+01
 1.431596688698320e+01
 3.817591169862187e+01
 1.670196136814707e+01
 3.817591169862187e+01
 1.431596688698320e+01
 3.817591169862187e+01
 1.670196136814707e+01
 3.817591169862187e+01
 1.431596688698320e+01
 3.817591169862187e+01
 1.670196136814707e+01
 3.817591169862187e+01
 1.431596688698320e+01
 3.817591169862187e+01
 1.670196136814707e+01
 3.817591169862187e+01
 1.431596688698320e+01
 3.817591169862187e+01
 1.670196136814707e+01
 3.817591169862187e+01
 1.431596688698320e+01
 3.817591169862187e+01
 8.350980684073534e+00
);