
/*--------------------------------*- C++ -*----------------------------------*\
| =========                 |                                                 |
| \\      /  F ield         | OpenFOAM: The Open Source CFD Toolbox           |
|  \\    /   O peration     | Version:  2.2.1                                 |
|   \\  /    A nd           | Web:      www.OpenFOAM.org                      |
|    \\/     M anipulation  |                                                 |
\*---------------------------------------------------------------------------*/
FoamFile
{
    version     2.0;
    format      ascii;
    class       dictionary;
    location    "constant";
    object      Xis;
}
// * * * * * * * * * * * * * * * * * * * * * * * * * * * * * * * * * * * * * //
61
(
-8.052731373928051e+02
-7.784306994797116e+02
-7.515882615666181e+02
-7.247458236535246e+02
-6.979033857404311e+02
-6.710609478273376e+02
-6.442185099142441e+02
-6.173760720011505e+02
-5.905336340880571e+02
-5.636911961749636e+02
-5.368487582618701e+02
-5.100063203487766e+02
-4.831638824356831e+02
-4.563214445225896e+02
-4.294790066094961e+02
-4.026365686964025e+02
-3.757941307833091e+02
-3.489516928702156e+02
-3.221092549571221e+02
-2.952668170440286e+02
-2.684243791309351e+02
-2.415819412178415e+02
-2.147395033047480e+02
-1.878970653916546e+02
-1.610546274785611e+02
-1.342121895654676e+02
-1.073697516523740e+02
-8.052731373928054e+01
-5.368487582618707e+01
-2.684243791309359e+01
 0.000000000000000e+00
 2.684243791309348e+01
 5.368487582618695e+01
 8.052731373928043e+01
 1.073697516523739e+02
 1.342121895654675e+02
 1.610546274785610e+02
 1.878970653916545e+02
 2.147395033047479e+02
 2.415819412178415e+02
 2.684243791309349e+02
 2.952668170440285e+02
 3.221092549571221e+02
 3.489516928702154e+02
 3.757941307833090e+02
 4.026365686964024e+02
 4.294790066094960e+02
 4.563214445225896e+02
 4.831638824356829e+02
 5.100063203487765e+02
 5.368487582618699e+02
 5.636911961749635e+02
 5.905336340880571e+02
 6.173760720011504e+02
 6.442185099142440e+02
 6.710609478273376e+02
 6.979033857404310e+02
 7.247458236535246e+02
 7.515882615666179e+02
 7.784306994797115e+02
 8.052731373928051e+02
);