/*--------------------------------*- C++ -*----------------------------------*\
| =========                 |                                                 |
| \\      /  F ield         | OpenFOAM: The Open Source CFD Toolbox           |
|  \\    /   O peration     | Version:  2.2.1                                 |
|   \\  /    A nd           | Web:      www.OpenFOAM.org                      |
|    \\/     M anipulation  |                                                 |
\*---------------------------------------------------------------------------*/
FoamFile
{
    version     2.0;
    format      ascii;
    class       dictionary;
    object      blockMeshDict;
}
// * * * * * * * * * * * * * * * * * * * * * * * * * * * * * * * * * * * * * //

convertToMeters 1.0;

vertices
(
    (0 0 0) //0
    (1 0 0)//1
    (2 0 0)//2
    (2 1 0)//3
    (1 1 0)//4
    (0 1 0)//5


    (0 0 0.1) //6
    (1 0 0.1)//7
    (2 0 0.1)//8
    (2 1 0.1)//9
    (1 1 0.1)//10
    (0 1 0.1)//11
);

blocks
(
    hex (0 1 4 5 6 7 10 11)  (60 60 1) simpleGrading  (1 1 1)
    hex (1 2 3 4 7 8 9 10) (60 60 1) simpleGrading (1 1 1)
);

edges
(
);

boundary
(
    top
    {
        type wall;
        faces
        (
            (4 5 11 10)
            (3 4 10 9)

        );
    }
    left 
    {
        type wall;
        faces
        (
            (0 6 11 5)
        );
    }
    right 
    {
        type wall;
        faces
        (
            (2 3 9 8)
        );
    }
    bottom 
    {
        type wall;
        faces
        (
            (0 1 7 6)
	    (1 2 8 7)
        );
    }

    frontAndBack
    {
        type empty;
        faces
        (
            (0 5 4 1)
            (1 4 3 2)
            (6 7 10 11)
            (7 8 9 10)
        );
    }
);

mergePatchPairs
(
);

// ************************************************************************* //
